models/ibr_psse/Benchmark_3bus_v33_mod_2ibr.raw
0,   100.00, 33, 0, 1, 60.00     / PSS(R)E 33 RAW created by rawd33  MON, DEC 19 2022  10:48
IEEE BENCHMARK SYSTEM VII
HTTP://WWW.SEL.EESC.USP.BR/IEEE/
     1,'GEN G1      ', 230.0000,3,   1,   1,   1,1.00000,   0.0000,1.10000,0.90000,1.10000,0.90000
     2,'BUS 2       ', 230.0000,1,   1,   1,   1,0.98574,  23.9188,1.10000,0.90000,1.10000,0.90000
     3,'GEN G2      ',  13.8000,2,   1,   1,   1,0.99010,  25.2950,1.10000,0.90000,1.10000,0.90000
 0 /End of Bus data, Begin Load data
 0 /End of Load data, Begin Fixed shunt data
 0 /End of Fixed shunt data, Begin Generator data
     1,'1 ',   -39.916,    10.090,   100.000,  -100.000,1.00000,     0,   100.000, 0.00000E+0, 2.50000E-1, 0.00000E+0, 0.00000E+0,1.00000,1,  100.0,   100.000,     0.000,   1,1.0000
     3,'R1',    30.000,     5.890,   100.000,  -100.000,0.99010,     0,    50.000, 0.00000E+0, 9.99900E+3, 0.00000E+0, 0.00000E+0,1.00000,1,  100.0,   100.000,     0.000,   1,1.0000,    ,      ,    ,      ,    ,      ,1, 1.0000
     3,'R2',    10.000,     1.963,   100.000,  -100.000,0.99010,     0,    50.000, 0.00000E+0, 9.99900E+3, 0.00000E+0, 0.00000E+0,1.00000,1,  100.0,   100.000,     0.000,   1,1.0000,    ,      ,    ,      ,    ,      ,1, 1.0000
 0 /End of Generator data, Begin Branch data
     1,     2,'1 ', 4.97000E-3, 1.00000E+0,   0.00000, 9999.00, 9999.00, 9999.00,  0.00000,  0.00000,  0.00000,  0.00000,1,2,   1.00,   1,1.0000
 0 /End of Branch data, Begin Transformer data
     2,     3,     0,'1 ',1,1,1, 0.00000E+0, 0.00000E+0,2,'G1 STEP UP  ',1,   1,1.0000,   0,1.0000,   0,1.0000,   0,1.0000,'            '
 0.00000E+0, 5.86000E-2,   100.00
1.00000,   0.000,   0.000,     0.00,     0.00,     0.00, 0,      0, 1.10000, 0.90000, 1.10000, 0.90000, 999, 0, 0.00000, 0.00000,  0.000
1.00000,   0.000
 0 /End of Transformer data, Begin Area interchange data
 0 /End of Area interchange data, Begin Two-terminal dc line data
 0 /End of Two-terminal dc line data, Begin VSC dc line data
 0 /End of VSC dc line data, Begin Impedance correction table data
 0 /End of Impedance correction table data, Begin Multi-terminal dc line data
 0 /End of Multi-terminal dc line data, Begin Multi-section line data
 0 /End of Multi-section line data, Begin Zone data
   1,'1           '
 0 /End of Zone data, Begin Inter-area transfer data
 0 /End of Inter-area transfer data, Begin Owner data
   1,'1           '
 0 /End of Owner data, Begin FACTS device data
 0 /End of FACTS device data, Begin Switched shunt data
 0 /End of Switched shunt data, Begin GNE device data
 0 /End of GNE device data, Begin Induction machine data
 0 /End of Induction machine data
Q
